LTspice 26.0.1 for Windows
Circuit: D:\WORKSPACE\TESTMODEL\Draft1.net
Start Time: Tue Feb 24 02:26:01 2026
solver = Normal
Maximum thread count: 16
tnom = 27
temp = 27
method = trap
.OP point found by inspection.
.OP point found by inspection.
Total elapsed time: 0.027 seconds.

Files loaded:
D:\WORKSPACE\TESTMODEL\Draft1.net

